*SPEF "ieee 1481-1999"
*DESIGN "ttsimon"
*DATE "00:52:16 Saturday July 13, 2024"
*VENDOR "The OpenROAD Project"
*PROGRAM "OpenROAD"
*VERSION "v2.0-14511-gedb4e7e37"
*DESIGN_FLOW "NAME_SCOPE LOCAL" "PIN_CAP NONE"
*DIVIDER /
*DELIMITER :
*BUS_DELIMITER []
*T_UNIT 1 NS
*C_UNIT 1 PF
*R_UNIT 1 OHM
*L_UNIT 1 HENRY

*NAME_MAP
*1 _0000_
*2 _0001_
*3 _0002_
*4 _0003_
*5 _0004_
*6 _0005_
*7 _0006_
*8 _0007_
*9 _0008_
*10 _0009_
*11 _0010_
*12 _0011_
*13 _0012_
*14 _0013_
*15 _0014_
*16 _0015_
*17 _0016_
*18 _0017_
*19 _0018_
*20 _0019_
*21 _0020_
*22 _0021_
*23 _0022_
*24 _0023_
*25 _0024_
*26 _0025_
*27 _0026_
*28 _0027_
*29 _0028_
*30 _0029_
*31 _0030_
*32 _0031_
*33 _0032_
*34 _0033_
*35 _0034_
*36 _0035_
*37 _0036_
*38 _0037_
*39 _0038_
*40 _0039_
*41 _0040_
*42 _0041_
*43 _0042_
*44 _0043_
*45 _0044_
*46 _0045_
*47 _0046_
*48 _0047_
*49 _0048_
*50 _0049_
*51 _0050_
*52 _0051_
*53 _0052_
*54 _0053_
*55 _0054_
*56 _0055_
*57 _0056_
*58 _0057_
*59 _0058_
*60 _0059_
*61 _0060_
*62 _0061_
*63 _0062_
*64 _0063_
*65 _0064_
*66 _0065_
*67 _0066_
*68 _0067_
*69 _0068_
*70 _0069_
*71 _0070_
*72 _0071_
*73 _0072_
*74 _0073_
*75 _0074_
*76 _0075_
*77 _0076_
*78 _0077_
*79 _0078_
*80 _0079_
*81 _0080_
*82 _0081_
*83 _0082_
*84 _0083_
*85 _0084_
*86 _0085_
*87 _0086_
*88 _0087_
*89 _0088_
*90 _0089_
*91 _0090_
*92 _0091_
*93 _0092_
*94 _0093_
*95 _0094_
*96 _0095_
*97 _0096_
*98 _0097_
*99 _0098_
*100 _0099_
*101 _0100_
*102 _0101_
*103 _0102_
*104 _0103_
*105 _0104_
*106 _0105_
*107 _0106_
*108 _0107_
*109 _0108_
*110 _0109_
*111 _0110_
*112 _0111_
*113 _0112_
*114 _0113_
*115 _0114_
*116 _0115_
*117 _0116_
*118 _0117_
*119 _0118_
*120 _0119_
*121 _0120_
*122 _0121_
*123 _0122_
*124 _0123_
*125 _0124_
*126 _0125_
*127 _0126_
*128 _0127_
*129 _0128_
*130 _0129_
*131 _0130_
*132 _0131_
*133 _0132_
*134 _0133_
*135 _0134_
*136 _0135_
*137 _0136_
*138 _0137_
*139 _0138_
*140 _0139_
*141 _0140_
*142 _0141_
*143 _0142_
*144 _0143_
*145 _0144_
*146 _0145_
*147 _0146_
*148 _0147_
*149 _0148_
*150 _0149_
*151 _0150_
*152 _0151_
*153 _0152_
*154 _0153_
*155 _0154_
*156 _0155_
*157 _0156_
*158 _0157_
*159 _0158_
*160 _0159_
*161 _0160_
*162 _0161_
*163 _0162_
*164 _0163_
*165 _0164_
*166 _0165_
*167 _0166_
*168 _0167_
*169 _0168_
*170 _0169_
*171 _0170_
*172 _0171_
*173 _0172_
*174 _0173_
*175 _0174_
*176 _0175_
*177 _0176_
*178 _0177_
*179 _0178_
*180 _0179_
*181 _0180_
*182 _0181_
*183 _0182_
*184 _0183_
*185 _0184_
*186 _0185_
*187 _0186_
*188 _0187_
*189 _0188_
*190 _0189_
*191 _0190_
*192 _0191_
*193 _0192_
*194 _0193_
*195 _0194_
*196 _0195_
*197 _0196_
*198 _0197_
*199 _0198_
*200 _0199_
*201 _0200_
*202 _0201_
*203 _0202_
*204 _0203_
*205 _0204_
*206 _0205_
*207 _0206_
*208 _0207_
*209 _0208_
*210 _0209_
*211 _0210_
*212 net26
*213 net25
*214 _0213_
*215 _0214_
*216 _0215_
*217 _0216_
*218 _0217_
*219 _0218_
*220 _0219_
*221 _0220_
*222 _0221_
*223 _0222_
*224 _0223_
*225 _0224_
*226 _0225_
*227 _0226_
*228 _0227_
*229 _0228_
*230 _0229_
*231 _0230_
*232 _0231_
*233 _0232_
*234 net24
*235 _0234_
*236 _0235_
*237 _0236_
*238 _0237_
*239 _0238_
*240 _0239_
*241 _0240_
*242 net23
*243 net22
*244 _0243_
*245 _0244_
*246 _0245_
*247 _0246_
*248 _0247_
*249 _0248_
*250 _0249_
*251 _0250_
*252 _0251_
*253 _0252_
*254 _0253_
*255 _0254_
*256 _0255_
*257 _0256_
*258 _0257_
*259 _0258_
*260 _0259_
*261 _0260_
*262 _0261_
*263 _0262_
*264 net21
*265 _0264_
*266 _0265_
*267 _0266_
*268 _0267_
*269 _0268_
*270 _0269_
*271 _0270_
*272 _0271_
*273 _0272_
*274 _0273_
*275 _0274_
*276 _0275_
*277 _0276_
*278 _0277_
*279 _0278_
*280 _0279_
*281 _0280_
*282 _0281_
*283 _0282_
*284 _0283_
*285 _0284_
*286 _0285_
*287 _0286_
*288 _0287_
*289 _0288_
*290 _0289_
*291 _0290_
*292 _0291_
*293 _0292_
*294 _0293_
*295 _0294_
*296 _0295_
*297 _0296_
*298 _0297_
*299 _0298_
*300 _0299_
*301 _0300_
*302 _0301_
*303 _0302_
*304 _0303_
*305 _0304_
*306 _0305_
*307 _0306_
*308 _0307_
*309 _0308_
*310 _0309_
*311 _0310_
*312 net20
*313 _0312_
*314 net19
*315 _0314_
*316 _0315_
*317 _0316_
*318 _0317_
*319 _0318_
*320 _0319_
*321 _0320_
*322 _0321_
*323 _0322_
*324 _0323_
*325 _0324_
*326 _0325_
*327 _0326_
*328 _0327_
*329 _0328_
*330 _0329_
*331 _0330_
*332 _0331_
*333 _0332_
*334 _0333_
*335 _0334_
*336 _0335_
*337 _0336_
*338 _0337_
*339 _0338_
*340 _0339_
*341 _0340_
*342 _0341_
*343 _0342_
*344 _0343_
*345 _0344_
*346 _0345_
*347 _0346_
*348 _0347_
*349 _0348_
*350 _0349_
*351 _0350_
*352 _0351_
*353 _0352_
*354 _0353_
*355 _0354_
*356 _0355_
*357 _0356_
*358 _0357_
*359 _0358_
*360 net18
*361 net17
*362 net16
*363 _0362_
*364 _0363_
*365 _0364_
*366 _0365_
*367 _0366_
*368 _0367_
*369 _0368_
*370 _0369_
*371 _0370_
*372 _0371_
*373 _0372_
*374 _0373_
*375 _0374_
*376 _0375_
*377 _0376_
*378 _0377_
*379 _0378_
*380 _0379_
*381 _0380_
*382 _0381_
*383 _0382_
*384 _0383_
*385 _0384_
*386 _0385_
*387 _0386_
*388 _0387_
*389 _0388_
*390 _0389_
*391 _0390_
*392 _0391_
*393 _0392_
*394 _0393_
*395 _0394_
*396 _0395_
*397 _0396_
*398 _0397_
*399 _0398_
*400 _0399_
*401 _0400_
*402 _0401_
*403 _0402_
*404 _0403_
*405 _0404_
*406 _0405_
*407 _0406_
*408 net15
*409 _0408_
*410 _0409_
*411 _0410_
*412 _0411_
*413 _0412_
*414 _0413_
*415 _0414_
*416 _0415_
*417 _0416_
*418 _0417_
*419 _0418_
*420 _0419_
*421 _0420_
*422 _0421_
*423 _0422_
*424 _0423_
*425 _0424_
*426 _0425_
*427 _0426_
*428 _0427_
*429 _0428_
*430 _0429_
*431 _0430_
*432 _0431_
*433 _0432_
*434 _0433_
*435 _0434_
*436 net14
*437 _0436_
*438 _0437_
*439 net13
*440 _0439_
*441 _0440_
*442 net12
*443 _0442_
*444 _0443_
*445 _0444_
*446 _0445_
*447 net11
*448 _0447_
*449 _0448_
*450 _0449_
*451 _0450_
*452 _0451_
*453 _0452_
*454 _0453_
*455 _0454_
*456 _0455_
*457 _0456_
*458 _0457_
*459 _0458_
*460 _0459_
*461 _0460_
*462 _0461_
*463 _0462_
*464 net10
*465 _0464_
*466 _0465_
*467 _0466_
*468 _0467_
*469 _0468_
*470 _0469_
*471 _0470_
*472 _0471_
*473 _0472_
*474 _0473_
*475 _0474_
*476 _0475_
*477 _0476_
*478 _0477_
*479 _0478_
*480 _0479_
*481 _0480_
*482 _0481_
*483 _0482_
*484 _0483_
*485 _0484_
*486 _0485_
*487 _0486_
*488 _0487_
*489 _0488_
*490 _0489_
*491 _0490_
*492 _0491_
*493 _0492_
*494 _0493_
*495 _0494_
*496 _0495_
*497 _0496_
*498 _0497_
*499 _0498_
*500 _0499_
*501 _0500_
*502 _0501_
*503 _0502_
*504 _0503_
*505 _0504_
*506 _0505_
*507 _0506_
*508 _0507_
*509 _0508_
*510 _0509_
*511 _0510_
*512 _0511_
*513 _0512_
*514 _0513_
*515 _0514_
*516 _0515_
*517 _0516_
*518 _0517_
*519 _0518_
*520 _0519_
*521 _0520_
*522 _0521_
*523 _0522_
*524 _0523_
*525 _0524_
*526 _0525_
*527 _0526_
*528 _0527_
*529 _0528_
*530 _0529_
*531 _0530_
*532 _0531_
*533 _0532_
*534 _0533_
*535 _0534_
*536 _0535_
*537 _0536_
*538 _0537_
*539 _0538_
*540 _0539_
*541 _0540_
*542 _0541_
*543 _0542_
*544 _0543_
*545 _0544_
*546 _0545_
*547 _0546_
*548 _0547_
*549 _0548_
*550 _0549_
*551 _0550_
*552 _0551_
*553 _0552_
*554 _0553_
*555 _0554_
*556 _0555_
*557 _0556_
*558 _0557_
*559 _0558_
*560 _0559_
*561 _0560_
*562 net9
*563 _0562_
*564 _0563_
*565 _0564_
*566 _0565_
*567 _0566_
*568 _0567_
*569 _0568_
*570 _0569_
*571 _0570_
*572 _0571_
*573 _0572_
*574 _0573_
*575 _0574_
*576 _0575_
*577 _0576_
*578 _0577_
*579 _0578_
*580 _0579_
*581 _0580_
*582 _0581_
*583 _0582_
*584 _0583_
*585 _0584_
*586 _0585_
*587 _0586_
*588 _0587_
*589 _0588_
*590 _0589_
*591 _0590_
*592 _0591_
*593 _0592_
*594 net8
*595 net7
*596 _0595_
*597 _0596_
*598 _0597_
*599 _0598_
*600 _0599_
*601 _0600_
*602 _0601_
*603 _0602_
*604 _0603_
*605 _0604_
*606 _0605_
*607 _0606_
*608 _0607_
*609 _0608_
*610 net6
*611 _0610_
*612 _0611_
*613 _0612_
*614 _0613_
*615 _0614_
*616 _0615_
*617 _0616_
*618 _0617_
*619 _0618_
*620 _0619_
*621 _0620_
*622 _0621_
*623 _0622_
*624 _0623_
*625 _0624_
*626 _0625_
*627 _0626_
*628 _0627_
*629 _0628_
*630 _0629_
*631 _0630_
*632 _0631_
*633 _0632_
*634 _0633_
*635 _0634_
*636 _0635_
*637 _0636_
*638 _0637_
*639 _0638_
*640 _0639_
*641 _0640_
*642 _0641_
*643 _0642_
*644 _0643_
*645 _0644_
*646 _0645_
*647 _0646_
*648 _0647_
*649 _0648_
*650 _0649_
*651 _0650_
*652 _0651_
*653 _0652_
*654 _0653_
*655 _0654_
*656 _0655_
*657 _0656_
*658 _0657_
*659 _0658_
*660 _0659_
*661 _0660_
*662 _0661_
*663 _0662_
*664 _0663_
*665 _0664_
*666 _0665_
*667 _0666_
*668 _0667_
*669 _0668_
*670 _0669_
*671 _0670_
*672 _0671_
*673 _0672_
*674 _0673_
*675 _0674_
*676 _0675_
*677 _0676_
*678 _0677_
*679 _0678_
*680 _0679_
*681 net5
*682 _0681_
*683 _0682_
*684 _0683_
*685 _0684_
*686 _0685_
*687 _0686_
*688 _0687_
*689 _0688_
*690 _0689_
*691 _0690_
*692 net4
*693 _0692_
*694 _0693_
*695 _0694_
*696 _0695_
*697 _0696_
*698 _0697_
*699 _0698_
*700 _0699_
*701 _0700_
*702 _0701_
*703 _0702_
*704 _0703_
*705 net3
*706 _0705_
*707 _0706_
*708 _0707_
*709 _0708_
*710 _0709_
*711 net2
*712 _0711_
*713 _0712_
*714 _0713_
*715 _0714_
*716 _0715_
*717 _0716_
*718 _0717_
*719 _0718_
*720 _0719_
*721 _0720_
*722 _0721_
*723 _0722_
*724 _0723_
*725 _0724_
*726 _0725_
*727 _0726_
*728 _0727_
*729 _0728_
*730 _0729_
*731 _0730_
*732 _0731_
*733 _0732_
*734 _0733_
*735 _0734_
*736 _0735_
*737 _0736_
*738 _0737_
*739 _0738_
*740 _0739_
*741 _0740_
*742 _0741_
*743 _0742_
*744 _0743_
*745 _0744_
*746 _0745_
*747 net135
*748 net134
*749 net133
*750 _0749_
*751 net132
*752 _0751_
*753 _0752_
*754 net131
*755 _0754_
*756 _0755_
*757 _0756_
*758 _0757_
*759 _0758_
*760 net130
*761 _0760_
*762 _0761_
*763 _0762_
*764 _0763_
*765 _0764_
*766 _0765_
*767 _0766_
*768 net129
*769 _0768_
*770 _0769_
*771 _0770_
*772 _0771_
*773 _0772_
*774 _0773_
*775 _0774_
*776 _0775_
*777 _0776_
*778 _0777_
*779 _0778_
*780 _0779_
*781 _0780_
*782 _0781_
*783 _0782_
*784 _0783_
*785 _0784_
*786 _0785_
*787 _0786_
*788 _0787_
*789 _0788_
*790 net128
*791 net127
*792 net126
*793 net125
*794 _0793_
*795 _0794_
*796 net124
*797 _0796_
*798 net123
*799 net122
*800 net121
*801 net120
*802 net119
*803 net118
*804 net117
*805 net116
*806 _0805_
*807 _0806_
*808 _0807_
*809 _0808_
*810 net115
*811 _0810_
*812 _0811_
*813 _0812_
*814 _0813_
*815 _0814_
*816 _0815_
*817 _0816_
*818 net114
*819 _0818_
*820 net113
*821 _0820_
*822 _0821_
*823 _0822_
*824 _0823_
*825 _0824_
*826 _0825_
*827 _0826_
*828 _0827_
*829 _0828_
*830 _0829_
*831 _0830_
*832 net112
*833 _0832_
*834 _0833_
*835 net111
*836 _0835_
*837 net110
*838 net109
*839 net108
*840 _0839_
*841 _0840_
*842 _0841_
*843 _0842_
*844 _0843_
*845 net107
*846 _0845_
*847 net106
*848 _0847_
*849 _0848_
*850 _0849_
*851 _0850_
*852 net105
*853 net104
*854 _0853_
*855 _0854_
*856 _0855_
*857 _0856_
*858 _0857_
*859 _0858_
*860 _0859_
*861 net103
*862 net102
*863 _0862_
*864 net100
*865 _0864_
*866 _0865_
*867 _0866_
*868 _0867_
*869 _0868_
*870 _0869_
*871 net99
*872 _0871_
*873 net98
*874 _0873_
*875 _0874_
*876 _0875_
*877 _0876_
*878 _0877_
*879 _0878_
*880 net97
*881 net96
*882 net95
*883 net94
*884 _0883_
*885 _0884_
*886 _0885_
*887 _0886_
*888 _0887_
*889 _0888_
*890 _0889_
*891 _0890_
*892 _0891_
*893 net93
*894 _0893_
*895 _0894_
*896 _0895_
*897 net92
*898 _0897_
*899 _0898_
*900 _0899_
*901 _0900_
*902 _0901_
*903 _0902_
*904 _0903_
*905 _0904_
*906 _0905_
*907 _0906_
*908 _0907_
*909 _0908_
*910 net91
*911 _0910_
*912 net90
*913 _0912_
*914 net89
*915 _0914_
*916 _0915_
*917 _0916_
*918 _0917_
*919 net88
*920 net87
*921 _0920_
*922 _0921_
*923 _0922_
*924 _0923_
*925 _0924_
*926 net86
*927 _0926_
*928 _0927_
*929 _0928_
*930 _0929_
*931 _0930_
*932 _0931_
*933 _0932_
*934 _0933_
*935 _0934_
*936 _0935_
*937 _0936_
*938 _0937_
*939 _0938_
*940 net85
*941 _0940_
*942 _0941_
*943 net84
*944 net83
*945 _0944_
*946 _0945_
*947 net82
*948 net81
*949 _0948_
*950 _0949_
*951 net80
*952 _0951_
*953 _0952_
*954 _0953_
*955 net79
*956 net78
*957 _0956_
*958 _0957_
*959 _0958_
*960 _0959_
*961 _0960_
*962 net77
*963 net76
*964 _0963_
*965 _0964_
*966 _0965_
*967 _0966_
*968 _0967_
*969 _0968_
*970 _0969_
*971 _0970_
*972 _0971_
*973 net75
*974 _0973_
*975 _0974_
*976 _0975_
*977 _0976_
*978 _0977_
*979 _0978_
*980 _0979_
*981 _0980_
*982 _0981_
*983 net74
*984 _0983_
*985 _0984_
*986 _0985_
*987 _0986_
*988 _0987_
*989 net73
*990 net72
*991 _0990_
*992 _0991_
*993 _0992_
*994 _0993_
*995 _0994_
*996 _0995_
*997 _0996_
*998 _0997_
*999 _0998_
*1000 _0999_
*1001 _1000_
*1002 _1001_
*1003 net71
*1004 _1003_
*1005 _1004_
*1006 _1005_
*1007 _1006_
*1008 net70
*1009 _1008_
*1010 _1009_
*1011 net69
*1012 _1011_
*1013 _1012_
*1014 _1013_
*1015 _1014_
*1016 _1015_
*1017 _1016_
*1018 _1017_
*1019 _1018_
*1020 _1019_
*1021 _1020_
*1022 _1021_
*1023 _1022_
*1024 _1023_
*1025 _1024_
*1026 _1025_
*1027 _1026_
*1028 _1027_
*1029 _1028_
*1030 _1029_
*1031 _1030_
*1032 _1031_
*1033 net68
*1034 _1033_
*1035 _1034_
*1036 _1035_
*1037 _1036_
*1038 _1037_
*1039 _1038_
*1040 _1039_
*1041 net67
*1042 _1041_
*1043 _1042_
*1044 _1043_
*1045 _1044_
*1046 _1045_
*1047 net66
*1048 _1047_
*1049 _1048_
*1050 _1049_
*1051 _1050_
*1052 _1051_
*1053 net65
*1054 _1053_
*1055 _1054_
*1056 _1055_
*1057 net64
*1058 _1057_
*1059 _1058_
*1060 _1059_
*1061 _1060_
*1062 _1061_
*1063 _1062_
*1064 _1063_
*1065 _1064_
*1066 _1065_
*1067 _1066_
*1068 _1067_
*1069 _1068_
*1070 _1069_
*1071 _1070_
*1072 _1071_
*1073 _1072_
*1074 _1073_
*1075 _1074_
*1076 _1075_
*1077 net63
*1078 _1077_
*1079 _1078_
*1080 _1079_
*1081 _1080_
*1082 _1081_
*1083 _1082_
*1084 _1083_
*1085 _1084_
*1086 _1085_
*1087 _1086_
*1088 _1087_
*1089 _1088_
*1090 _1089_
*1091 _1090_
*1092 _1091_
*1093 _1092_
*1094 _1093_
*1095 _1094_
*1096 _1095_
*1097 _1096_
*1098 _1097_
*1099 _1098_
*1100 _1099_
*1101 _1100_
*1102 net62
*1103 _1102_
*1104 net61
*1105 net60
*1106 net59
*1107 _1106_
*1108 net58
*1109 net57
*1110 net56
*1111 net55
*1112 _1111_
*1113 _1112_
*1114 net54
*1115 net53
*1116 net52
*1117 net51
*1118 _1117_
*1119 _1118_
*1120 _1119_
*1121 net50
*1122 _1121_
*1123 net49
*1124 net48
*1125 _1124_
*1126 net47
*1127 net46
*1128 _1127_
*1129 _1128_
*1130 _1129_
*1131 net45
*1132 net44
*1133 _1132_
*1134 _1133_
*1135 _1134_
*1136 net43
*1137 _1136_
*1138 net42
*1139 net41
*1140 _1139_
*1141 net40
*1142 net39
*1143 _1142_
*1144 net38
*1145 net37
*1146 _1145_
*1147 net36
*1148 net35
*1149 net34
*1150 _1149_
*1151 _1150_
*1152 net33
*1153 _1152_
*1154 _1153_
*1155 _1154_
*1156 _1155_
*1157 _1156_
*1158 _1157_
*1159 _1158_
*1160 _1159_
*1161 net32
*1162 _1161_
*1163 net31
*1164 net30
*1165 _1164_
*1166 _1165_
*1167 _1166_
*1168 _1167_
*1169 _1168_
*1170 _1169_
*1171 _1170_
*1172 _1171_
*1173 _1172_
*1174 _1173_
*1175 _1174_
*1176 _1175_
*1177 _1176_
*1178 _1177_
*1179 _1178_
*1180 _1179_
*1181 _1180_
*1182 _1181_
*1183 _1182_
*1184 _1183_
*1185 _1184_
*1186 _1185_
*1187 _1186_
*1188 _1187_
*1189 _1188_
*1190 _1189_
*1191 _1190_
*1192 _1191_
*1193 _1192_
*1194 _1193_
*1195 _1194_
*1196 _1195_
*1197 _1196_
*1198 _1197_
*1199 _1198_
*1200 _1199_
*1201 _1200_
*1202 net29
*1203 _1202_
*1204 _1203_
*1205 _1204_
*1206 _1205_
*1207 _1206_
*1208 _1207_
*1209 _1208_
*1210 net28
*1211 _1210_
*1212 net27
*1213 _1212_
*1214 _1213_
*1215 _1214_
*1216 _1215_
*1217 _1216_
*1218 _1217_
*1219 _1218_
*1220 _1219_
*1221 _1220_
*1222 _1221_
*1223 _1222_
*1224 _1223_
*1225 _1224_
*1226 _1225_
*1227 _1226_
*1228 _1227_
*1229 _1228_
*1230 _1229_
*1231 _1230_
*1232 _1231_
*1233 _1232_
*1234 _1233_
*1235 _1234_
*1236 _1235_
*1237 _1236_
*1238 _1237_
*1239 _1238_
*1240 _1239_
*1241 _1240_
*1242 _1241_
*1243 _1242_
*1244 _1243_
*1245 _1244_
*1246 _1245_
*1247 _1246_
*1248 _1247_
*1249 _1248_
*1250 _1249_
*1251 _1250_
*1252 _1251_
*1253 _1252_
*1254 _1253_
*1255 _1254_
*1256 _1255_
*1257 _1256_
*1258 _1257_
*1259 _1258_
*1260 _1259_
*1261 _1260_
*1262 _1261_
*1263 _1262_
*1264 _1263_
*1265 _1264_
*1266 _1265_
*1267 _1266_
*1268 _1267_
*1269 _1268_
*1270 _1269_
*1271 _1270_
*1272 _1271_
*1273 _1272_
*1274 _1273_
*1275 _1274_
*1276 _1275_
*1277 _1276_
*1278 _1277_
*1279 _1278_
*1280 _1279_
*1281 _1280_
*1282 _1281_
*1283 _1282_
*1284 _1283_
*1285 _1284_
*1286 _1285_
*1287 _1286_
*1288 _1287_
*1289 _1288_
*1290 _1289_
*1291 _1290_
*1292 _1291_
*1293 _1292_
*1294 _1293_
*1295 _1294_
*1296 _1295_
*1297 _1296_
*1298 _1297_
*1299 _1298_
*1300 _1299_
*1301 _1300_
*1302 _1301_
*1303 _1302_
*1304 _1303_
*1305 _1304_
*1306 _1305_
*1307 _1306_
*1308 _1307_
*1309 _1308_
*1310 _1309_
*1311 _1310_
*1312 _1311_
*1313 _1312_
*1314 _1313_
*1315 _1314_
*1316 _1315_
*1317 _1316_
*1318 _1317_
*1319 _1318_
*1320 _1319_
*1321 _1320_
*1322 _1321_
*1323 _1322_
*1324 _1323_
*1325 _1324_
*1326 _1325_
*1327 _1326_
*1328 _1327_
*1329 _1328_
*1330 _1329_
*1331 _1330_
*1332 _1331_
*1333 _1332_
*1334 _1333_
*1335 _1334_
*1336 _1335_
*1337 _1336_
*1338 _1337_
*1339 _1338_
*1340 _1339_
*1341 _1340_
*1342 _1341_
*1343 _1342_
*1344 _1343_
*1345 _1344_
*1346 _1345_
*1347 _1346_
*1348 _1347_
*1349 _1348_
*1350 _1349_
*1351 _1350_
*1352 _1351_
*1353 _1352_
*1354 _1353_
*1355 _1354_
*1356 _1355_
*1357 _1356_
*1358 _1357_
*1359 _1358_
*1360 _1359_
*1361 _1360_
*1362 _1361_
*1363 _1362_
*1364 _1363_
*1365 _1364_
*1366 _1365_
*1367 _1366_
*1368 _1367_
*1369 _1368_
*1370 _1369_
*1371 _1370_
*1372 _1371_
*1373 _1372_
*1374 _1373_
*1375 _1374_
*1376 _1375_
*1377 _1376_
*1378 _1377_
*1379 _1378_
*1380 _1379_
*1381 _1380_
*1382 _1381_
*1383 _1382_
*1384 _1383_
*1385 _1384_
*1386 _1385_
*1387 _1386_
*1388 _1387_
*1389 _1388_
*1390 _1389_
*1391 _1390_
*1392 _1391_
*1393 _1392_
*1394 _1393_
*1395 _1394_
*1396 _1395_
*1397 _1396_
*1398 _1397_
*1399 net1
*1401 clk
*1402 ena
*1403 rst_n
*1404 simon1\.millis_counter\[0\]
*1405 simon1\.millis_counter\[1\]
*1406 simon1\.millis_counter\[2\]
*1407 simon1\.millis_counter\[3\]
*1408 simon1\.millis_counter\[4\]
*1409 simon1\.millis_counter\[5\]
*1410 simon1\.millis_counter\[6\]
*1411 simon1\.millis_counter\[7\]
*1412 simon1\.millis_counter\[8\]
*1413 simon1\.millis_counter\[9\]
*1414 simon1\.next_random\[0\]
*1415 simon1\.next_random\[1\]
*1416 simon1\.play1\.freq\[0\]
*1417 simon1\.play1\.freq\[1\]
*1418 simon1\.play1\.freq\[2\]
*1419 simon1\.play1\.freq\[3\]
*1420 simon1\.play1\.freq\[4\]
*1421 simon1\.play1\.freq\[5\]
*1422 simon1\.play1\.freq\[6\]
*1423 simon1\.play1\.freq\[7\]
*1424 simon1\.play1\.freq\[8\]
*1425 simon1\.play1\.freq\[9\]
*1427 simon1\.play1\.tick_counter\[0\]
*1428 simon1\.play1\.tick_counter\[10\]
*1429 simon1\.play1\.tick_counter\[11\]
*1430 simon1\.play1\.tick_counter\[12\]
*1431 simon1\.play1\.tick_counter\[13\]
*1432 simon1\.play1\.tick_counter\[14\]
*1433 simon1\.play1\.tick_counter\[15\]
*1434 simon1\.play1\.tick_counter\[16\]
*1435 simon1\.play1\.tick_counter\[17\]
*1436 simon1\.play1\.tick_counter\[18\]
*1437 simon1\.play1\.tick_counter\[19\]
*1438 simon1\.play1\.tick_counter\[1\]
*1439 simon1\.play1\.tick_counter\[20\]
*1440 simon1\.play1\.tick_counter\[21\]
*1441 simon1\.play1\.tick_counter\[22\]
*1442 simon1\.play1\.tick_counter\[23\]
*1443 simon1\.play1\.tick_counter\[24\]
*1444 simon1\.play1\.tick_counter\[25\]
*1445 simon1\.play1\.tick_counter\[26\]
*1446 simon1\.play1\.tick_counter\[27\]
*1447 simon1\.play1\.tick_counter\[28\]
*1448 simon1\.play1\.tick_counter\[29\]
*1449 simon1\.play1\.tick_counter\[2\]
*1450 simon1\.play1\.tick_counter\[30\]
*1451 simon1\.play1\.tick_counter\[31\]
*1452 simon1\.play1\.tick_counter\[3\]
*1453 simon1\.play1\.tick_counter\[4\]
*1454 simon1\.play1\.tick_counter\[5\]
*1455 simon1\.play1\.tick_counter\[6\]
*1456 simon1\.play1\.tick_counter\[7\]
*1457 simon1\.play1\.tick_counter\[8\]
*1458 simon1\.play1\.tick_counter\[9\]
*1459 simon1\.score1\.active_digit
*1460 simon1\.score1\.ena
*1461 simon1\.score1\.inc
*1462 simon1\.score1\.ones\[0\]
*1463 simon1\.score1\.ones\[1\]
*1464 simon1\.score1\.ones\[2\]
*1465 simon1\.score1\.ones\[3\]
*1466 simon1\.score1\.tens\[0\]
*1467 simon1\.score1\.tens\[1\]
*1468 simon1\.score1\.tens\[2\]
*1469 simon1\.score1\.tens\[3\]
*1470 simon1\.score_rst
*1471 simon1\.seq\[0\]\[0\]
*1472 simon1\.seq\[0\]\[1\]
*1473 simon1\.seq\[10\]\[0\]
*1474 simon1\.seq\[10\]\[1\]
*1475 simon1\.seq\[11\]\[0\]
*1476 simon1\.seq\[11\]\[1\]
*1477 simon1\.seq\[12\]\[0\]
*1478 simon1\.seq\[12\]\[1\]
*1479 simon1\.seq\[13\]\[0\]
*1480 simon1\.seq\[13\]\[1\]
*1481 simon1\.seq\[14\]\[0\]
*1482 simon1\.seq\[14\]\[1\]
*1483 simon1\.seq\[15\]\[0\]
*1484 simon1\.seq\[15\]\[1\]
*1485 simon1\.seq\[16\]\[0\]
*1486 simon1\.seq\[16\]\[1\]
*1487 simon1\.seq\[17\]\[0\]
*1488 simon1\.seq\[17\]\[1\]
*1489 simon1\.seq\[18\]\[0\]
*1490 simon1\.seq\[18\]\[1\]
*1491 simon1\.seq\[19\]\[0\]
*1492 simon1\.seq\[19\]\[1\]
*1493 simon1\.seq\[1\]\[0\]
*1494 simon1\.seq\[1\]\[1\]
*1495 simon1\.seq\[20\]\[0\]
*1496 simon1\.seq\[20\]\[1\]
*1497 simon1\.seq\[21\]\[0\]
*1498 simon1\.seq\[21\]\[1\]
*1499 simon1\.seq\[22\]\[0\]
*1500 simon1\.seq\[22\]\[1\]
*1501 simon1\.seq\[23\]\[0\]
*1502 simon1\.seq\[23\]\[1\]
*1503 simon1\.seq\[24\]\[0\]
*1504 simon1\.seq\[24\]\[1\]
*1505 simon1\.seq\[25\]\[0\]
*1506 simon1\.seq\[25\]\[1\]
*1507 simon1\.seq\[26\]\[0\]
*1508 simon1\.seq\[26\]\[1\]
*1509 simon1\.seq\[27\]\[0\]
*1510 simon1\.seq\[27\]\[1\]
*1511 simon1\.seq\[28\]\[0\]
*1512 simon1\.seq\[28\]\[1\]
*1513 simon1\.seq\[29\]\[0\]
*1514 simon1\.seq\[29\]\[1\]
*1515 simon1\.seq\[2\]\[0\]
*1516 simon1\.seq\[2\]\[1\]
*1517 simon1\.seq\[30\]\[0\]
*1518 simon1\.seq\[30\]\[1\]
*1519 simon1\.seq\[31\]\[0\]
*1520 simon1\.seq\[31\]\[1\]
*1521 simon1\.seq\[3\]\[0\]
*1522 simon1\.seq\[3\]\[1\]
*1523 simon1\.seq\[4\]\[0\]
*1524 simon1\.seq\[4\]\[1\]
*1525 simon1\.seq\[5\]\[0\]
*1526 simon1\.seq\[5\]\[1\]
*1527 simon1\.seq\[6\]\[0\]
*1528 simon1\.seq\[6\]\[1\]
*1529 simon1\.seq\[7\]\[0\]
*1530 simon1\.seq\[7\]\[1\]
*1531 simon1\.seq\[8\]\[0\]
*1532 simon1\.seq\[8\]\[1\]
*1533 simon1\.seq\[9\]\[0\]
*1534 simon1\.seq\[9\]\[1\]
*1535 simon1\.seq_counter\[0\]
*1536 simon1\.seq_counter\[1\]
*1537 simon1\.seq_counter\[2\]
*1538 simon1\.seq_counter\[3\]
*1539 simon1\.seq_counter\[4\]
*1540 simon1\.seq_length\[0\]
*1541 simon1\.seq_length\[1\]
*1542 simon1\.seq_length\[2\]
*1543 simon1\.seq_length\[3\]
*1544 simon1\.seq_length\[4\]
*1545 simon1\.state\[0\]
*1546 simon1\.state\[1\]
*1547 simon1\.state\[2\]
*1548 simon1\.state\[3\]
*1549 simon1\.state\[4\]
*1550 simon1\.state\[5\]
*1551 simon1\.state\[6\]
*1552 simon1\.state\[7\]
*1553 simon1\.tick_counter\[0\]
*1554 simon1\.tick_counter\[10\]
*1555 simon1\.tick_counter\[11\]
*1556 simon1\.tick_counter\[12\]
*1557 simon1\.tick_counter\[13\]
*1558 simon1\.tick_counter\[14\]
*1559 simon1\.tick_counter\[15\]
*1560 simon1\.tick_counter\[1\]
*1561 simon1\.tick_counter\[2\]
*1562 simon1\.tick_counter\[3\]
*1563 simon1\.tick_counter\[4\]
*1564 simon1\.tick_counter\[5\]
*1565 simon1\.tick_counter\[6\]
*1566 simon1\.tick_counter\[7\]
*1567 simon1\.tick_counter\[8\]
*1568 simon1\.tick_counter\[9\]
*1569 simon1\.tone_sequence_counter\[0\]
*1570 simon1\.tone_sequence_counter\[1\]
*1571 simon1\.tone_sequence_counter\[2\]
*1572 simon1\.user_input\[0\]
*1573 simon1\.user_input\[1\]
*1574 ui_in[0]
*1575 ui_in[1]
*1576 ui_in[2]
*1577 ui_in[3]
*1578 ui_in[4]
*1579 ui_in[5]
*1580 ui_in[6]
*1581 ui_in[7]
*1582 uio_in[0]
*1583 uio_in[1]
*1584 uio_in[2]
*1585 uio_in[3]
*1586 uio_in[4]
*1587 uio_in[5]
*1588 uio_in[6]
*1589 uio_in[7]
*1590 clknet_0_clk
*1591 uio_oe[1]
*1592 uio_oe[2]
*1593 uio_oe[3]
*1594 uio_oe[4]
*1595 uio_oe[5]
*1596 uio_oe[6]
*1597 net101
*1598 uio_out[0]
*1599 uio_out[1]
*1600 uio_out[2]
*1601 uio_out[3]
*1602 uio_out[4]
*1603 uio_out[5]
*1604 uio_out[6]
*1605 uio_out[7]
*1606 uo_out[0]
*1607 uo_out[1]
*1608 uo_out[2]
*1609 uo_out[3]
*1610 uo_out[4]
*1611 uo_out[5]
*1612 uo_out[6]
*1613 uo_out[7]
*1614 net136
*1615 net137
*1616 net138
*1617 net139
*1618 net140
*1619 net141
*1620 net142
*1621 net143
*1622 net144
*1623 net145
*1624 net146
*1625 net147
*1626 net148
*1627 net149
*1628 net150
*1629 net151
*1630 net152
*1631 net153
*1632 net154
*1633 net155
*1634 net156
*1635 net157
*1636 net158
*1637 net159
*1638 net160
*1639 net161
*1640 net162
*1641 net163
*1642 net164
*1643 net165
*1644 net166
*1645 net167
*1646 net168
*1647 net169
*1648 net170
*1649 net171
*1650 net172
*1651 net173
*1652 net174
*1653 net175
*1654 net176
*1655 net177
*1656 net178
*1657 net179
*1658 net180
*1659 net181
*1660 net182
*1661 net183
*1662 net184
*1663 net185
*1664 net186
*1665 net187
*1666 net188
*1667 net189
*1668 net190
*1669 net191
*1670 net192
*1671 net193
*1672 net194
*1673 net195
*1674 net196
*1675 net197
*1676 net198
*1677 net199
*1678 net200
*1679 net201
*1680 net202
*1681 net203
*1682 net204
*1683 net205
*1684 net206
*1685 net207
*1686 net208
*1687 net209
*1688 net210
*1689 net211
*1690 net212
*1691 net213
*1692 net214
*1693 net215
*1694 net216
*1695 net217
*1696 net218
*1697 net219
*1698 net220
*1699 net221
*1700 net222
*1701 net223
*1702 net224
*1703 net225
*1704 net226
*1705 net227
*1706 net228
*1707 net229
*1708 net230
*1709 net231
*1710 net232
*1711 net233
*1712 net234
*1713 net235
*1714 net236
*1715 net237
*1716 net238
*1717 net239
*1718 net240
*1719 net241
*1720 net242
*1721 net243
*1722 net244
*1723 net245
*1724 net246
*1725 net247
*1726 net248
*1727 net249
*1728 net250
*1729 net251
*1730 net252
*1731 net253
*1732 net254
*1733 net255
*1734 net256
*1735 net257
*1736 net258
*1737 net259
*1738 net260
*1739 net261
*1740 net262
*1741 net263
*1742 net264
*1743 net265
*1744 net266
*1745 net267
*1746 net268
*1747 net269
*1748 net270
*1749 net271
*1750 net272
*1751 net273
*1752 net274
*1753 net275
*1754 net276
*1755 net277
*1756 net278
*1757 net279
*1758 net280
*1759 net281
*1760 net282
*1761 net283
*1762 net284
*1763 net285
*1764 net286
*1765 net287
*1766 net288
*1767 net289
*1768 net290
*1769 net291
*1770 net292
*1771 net293
*1772 net294
*1773 net295
*1774 clknet_4_0_0_clk
*1775 clknet_4_1_0_clk
*1776 clknet_4_2_0_clk
*1777 clknet_4_3_0_clk
*1778 clknet_4_4_0_clk
*1779 clknet_4_5_0_clk
*1780 clknet_4_6_0_clk
*1781 clknet_4_7_0_clk
*1782 clknet_4_8_0_clk
*1783 clknet_4_9_0_clk
*1784 clknet_4_10_0_clk
*1785 clknet_4_11_0_clk
*1786 clknet_4_12_0_clk
*1787 clknet_4_13_0_clk
*1788 clknet_4_14_0_clk
*1789 clknet_4_15_0_clk
*1790 simon1\.play1\.tick_counter\[10\]\$_SDFFE_PN0N__137
*1791 simon1\.play1\.tick_counter\[0\]\$_SDFFE_PN0N__136
*1792 simon1\.play1\.sound\$_SDFFE_PP0N__135
*1793 _1403_
*1794 simon1\.play1\.freq\[9\]\$_SDFFE_PN0P__134
*1795 _1405_
*1796 _1406_
*1797 simon1\.play1\.freq\[8\]\$_SDFFE_PN0P__133
*1798 _1408_
*1799 _1409_
*1800 _1410_
*1801 _1411_
*1802 _1412_
*1803 simon1\.play1\.freq\[7\]\$_SDFFE_PN0P__132
*1804 _1414_
*1805 _1415_
*1806 _1416_
*1807 _1417_
*1808 _1418_
*1809 _1419_
*1810 _1420_
*1811 simon1\.play1\.freq\[6\]\$_SDFFE_PN0P__131
*1812 _1422_
*1813 _1423_
*1814 _1424_
*1815 _1425_
*1816 _1426_
*1817 _1427_
*1818 _1428_
*1819 _1429_
*1820 _1430_
*1821 _1431_
*1822 _1432_
*1823 _1433_
*1824 _1434_
*1825 _1435_
*1826 _1436_
*1827 _1437_
*1828 _1438_
*1829 _1439_
*1830 _1440_
*1831 _1441_
*1832 _1442_
*1833 _1443_
*1834 _1444_
*1835 _1445_
*1836 _1446_
*1837 _1447_
*1838 _1448_
*1839 _1449_
*1840 simon1\.play1\.freq\[5\]\$_SDFFE_PN0P__130
*1841 simon1\.play1\.freq\[4\]\$_SDFFE_PN0P__129
*1842 simon1\.play1\.freq\[3\]\$_SDFFE_PN0P__128
*1843 simon1\.play1\.freq\[2\]\$_SDFFE_PN0P__127
*1844 _1454_
*1845 _1455_
*1846 simon1\.play1\.freq\[1\]\$_SDFFE_PN0P__126
*1847 _1457_
*1848 simon1\.play1\.freq\[0\]\$_SDFFE_PN0P__125
*1849 simon1\.next_random\[1\]\$_SDFF_PN0__124
*1850 _1460_
*1851 simon1\.next_random\[0\]\$_SDFF_PN0__123
*1852 simon1\.millis_counter\[9\]\$_SDFF_PN0__122
*1853 simon1\.millis_counter\[8\]\$_SDFF_PN0__121
*1854 simon1\.millis_counter\[7\]\$_SDFF_PN0__120
*1855 simon1\.millis_counter\[6\]\$_SDFF_PN0__119
*1856 simon1\.millis_counter\[5\]\$_SDFF_PN0__118
*1857 _1467_
*1858 _1468_
*1859 _1469_
*1860 _1470_
*1861 simon1\.millis_counter\[4\]\$_SDFF_PN0__117
*1862 _1472_
*1863 _1473_
*1864 _1474_
*1865 _1475_
*1866 _1476_
*1867 _1477_
*1868 _1478_
*1869 simon1\.millis_counter\[3\]\$_SDFF_PN0__116
*1870 _1480_
*1871 simon1\.millis_counter\[2\]\$_SDFF_PN0__115
*1872 _1482_
*1873 _1483_
*1874 _1484_
*1875 _1485_
*1876 _1486_
*1877 _1487_
*1878 _1488_
*1879 _1489_
*1880 _1490_
*1881 _1491_
*1882 _1492_
*1883 simon1\.millis_counter\[1\]\$_SDFF_PN0__114
*1884 _1494_
*1885 _1495_
*1886 simon1\.millis_counter\[0\]\$_SDFF_PN0__113
*1887 _1497_
*1888 _2618__112
*1889 _2617__111
*1890 _2616__110
*1891 _1501_
*1892 _1502_
*1893 _1503_
*1894 _1504_
*1895 _1505_
*1896 _2615__109
*1897 _1507_
*1898 _2614__108
*1899 _1509_
*1900 _1510_
*1901 _1511_
*1902 _1512_
*1903 _1513_
*1904 _2613__107
*1905 _2609__106
*1906 _1516_
*1907 _1517_
*1908 _1518_
*1909 _1519_
*1910 _1520_
*1911 _1521_
*1912 _1522_
*1913 _2608__105
*1914 _2607__104
*1915 _1525_
*1916 _1526_
*1917 _2606__103
*1918 _1528_
*1919 _1529_
*1920 _1530_
*1921 _1531_
*1922 _1532_
*1923 _1533_
*1924 _2605__102
*1925 _1535_
*1926 _1536_
*1927 _2622__100
*1928 _1538_
*1929 _1539_
*1930 _1540_
*1931 _1541_
*1932 _1542_
*1933 _1543_
*1934 _2620__99
*1935 _1545_
*1936 ttsimon_98
*1937 fanout97
*1938 fanout96
*1939 _1549_
*1940 _1550_
*1941 _1551_
*1942 _1552_
*1943 _1553_
*1944 _1554_
*1945 _1555_
*1946 _1556_
*1947 _1557_
*1948 fanout95
*1949 _1559_
*1950 _1560_
*1951 _1561_
*1952 fanout94
*1953 _1563_
*1954 _1564_
*1955 _1565_
*1956 _1566_
*1957 _1567_
*1958 _1568_
*1959 _1569_
*1960 _1570_
*1961 _1571_
*1962 _1572_
*1963 _1573_
*1964 _1574_
*1965 fanout93
*1966 _1576_
*1967 fanout92
*1968 _1578_
*1969 fanout91
*1970 _1580_
*1971 _1581_
*1972 _1582_
*1973 _1583_
*1974 fanout90
*1975 fanout89
*1976 _1586_
*1977 _1587_
*1978 _1588_
*1979 _1589_
*1980 _1590_
*1981 _1591_
*1982 fanout88
*1983 _1593_
*1984 _1594_
*1985 _1595_
*1986 _1596_
*1987 _1597_
*1988 _1598_
*1989 _1599_
*1990 _1600_
*1991 _1601_
*1992 _1602_
*1993 _1603_
*1994 _1604_
*1995 _1605_
*1996 _1606_
*1997 _1607_
*1998 _1608_
*1999 _1609_
*2000 _1610_
*2001 fanout87
*2002 _1612_
*2003 _1613_
*2004 fanout86
*2005 fanout85
*2006 _1616_
*2007 _1617_
*2008 fanout84
*2009 fanout83
*2010 _1620_
*2011 _1621_
*2012 fanout82
*2013 _1623_
*2014 _1624_
*2015 _1625_
*2016 _1626_
*2017 fanout81
*2018 fanout80
*2019 _1629_
*2020 _1630_
*2021 _1631_
*2022 _1632_
*2023 _1633_
*2024 _1634_
*2025 fanout79
*2026 fanout78
*2027 _1637_
*2028 _1638_
*2029 _1639_
*2030 _1640_
*2031 _1641_
*2032 _1642_
*2033 _1643_